*SPEF "ieee 1481-1999"
*DESIGN "msvsd4bituc"
*DATE "11:11:11 Fri 11 11, 1111"
*VENDOR "OpenRCX"
*PROGRAM "Parallel Extraction"
*VERSION "1.0"
*DESIGN_FLOW "NAME_SCOPE LOCAL" "PIN_CAP NONE"
*DIVIDER /
*DELIMITER :
*BUS_DELIMITER []
*T_UNIT 1 NS
*C_UNIT 1 PF
*R_UNIT 1 OHM
*L_UNIT 1 HENRY

*NAME_MAP
*1 INN
*2 OUT
*5 ring_adc
*6 ADC_1BIT
*7 RING_OSCILLATOR
*8 PHY_0
*9 PHY_1
*10 PHY_2
*11 PHY_3
*12 PHY_4
*13 PHY_5
*14 PHY_6
*15 PHY_7
*16 PHY_8
*17 PHY_9
*18 PHY_10
*19 PHY_11
*20 PHY_12
*21 PHY_13
*22 PHY_14
*23 PHY_15
*24 PHY_16
*25 PHY_17
*26 PHY_18
*27 PHY_19
*28 PHY_20
*29 PHY_21
*30 PHY_22
*31 PHY_23
*32 PHY_24
*33 PHY_25
*34 PHY_26
*35 PHY_27
*36 PHY_28
*37 PHY_29
*38 PHY_30
*39 PHY_31
*40 PHY_32
*41 PHY_33
*42 PHY_34
*43 PHY_35
*44 PHY_36
*45 PHY_37
*46 PHY_38
*47 PHY_39
*48 PHY_40
*49 PHY_41
*50 PHY_42
*51 PHY_43
*52 PHY_44
*53 PHY_45
*54 PHY_46
*55 PHY_47
*56 PHY_48
*57 PHY_49
*58 PHY_50
*59 PHY_51
*60 PHY_52
*61 PHY_53
*62 PHY_54
*63 PHY_55
*64 PHY_56
*65 PHY_57
*66 PHY_58
*67 PHY_59
*68 PHY_60
*69 PHY_61
*70 PHY_62
*71 PHY_63
*72 PHY_64
*73 PHY_65
*74 PHY_66
*75 PHY_67
*76 PHY_68
*77 PHY_69
*78 PHY_70
*79 PHY_71
*80 PHY_72
*81 PHY_73
*82 PHY_74
*83 PHY_75
*84 PHY_76
*85 PHY_77
*86 PHY_78
*87 PHY_79
*88 PHY_80
*89 PHY_81
*90 PHY_82
*91 PHY_83
*92 PHY_84
*93 PHY_85
*94 PHY_86
*95 PHY_87
*96 PHY_88
*97 PHY_89
*98 PHY_90
*99 PHY_91
*100 PHY_92
*101 PHY_93
*102 PHY_94
*103 PHY_95
*104 PHY_96
*105 PHY_97
*106 PHY_98
*107 PHY_99
*108 PHY_100
*109 PHY_101
*110 PHY_102
*111 PHY_103
*112 PHY_104
*113 PHY_105
*114 PHY_106
*115 PHY_107
*116 PHY_108
*117 PHY_109
*118 PHY_110
*119 PHY_111
*120 PHY_112
*121 PHY_113
*122 PHY_114
*123 PHY_115
*124 PHY_116
*125 PHY_117
*126 PHY_118
*127 PHY_119
*128 PHY_120
*129 PHY_121
*130 PHY_122
*131 PHY_123
*132 PHY_124
*133 PHY_125
*134 PHY_126
*135 PHY_127
*136 PHY_128
*137 PHY_129
*138 PHY_130
*139 PHY_131
*140 PHY_132
*141 PHY_133
*142 PHY_134
*143 PHY_135
*144 PHY_136
*145 PHY_137
*146 PHY_138
*147 PHY_139
*148 PHY_140
*149 PHY_141
*150 PHY_142
*151 PHY_143
*152 PHY_144
*153 PHY_145
*154 PHY_146
*155 PHY_147
*156 PHY_148
*157 PHY_149
*158 PHY_150
*159 PHY_151
*160 PHY_152
*161 PHY_153
*162 PHY_154
*163 PHY_155
*164 PHY_156
*165 PHY_157
*166 PHY_158
*167 PHY_159
*168 PHY_160
*169 PHY_161
*170 PHY_162
*171 PHY_163
*172 PHY_164
*173 PHY_165
*174 PHY_166
*175 PHY_167
*176 PHY_168
*177 PHY_169
*178 PHY_170
*179 PHY_171
*180 PHY_172
*181 PHY_173
*182 PHY_174
*183 PHY_175
*184 PHY_176
*185 PHY_177
*186 PHY_178
*187 PHY_179
*188 PHY_180
*189 PHY_181
*190 PHY_182
*191 PHY_183
*192 PHY_184
*193 PHY_185
*194 PHY_186
*195 PHY_187
*196 PHY_188
*197 PHY_189
*198 PHY_190
*199 PHY_191
*200 PHY_192
*201 PHY_193
*202 PHY_194
*203 PHY_195
*204 PHY_196
*205 PHY_197
*206 PHY_198
*207 PHY_199
*208 PHY_200
*209 PHY_201
*210 PHY_202
*211 PHY_203
*212 PHY_204
*213 PHY_205
*214 PHY_206
*215 PHY_207
*216 PHY_208
*217 PHY_209
*218 PHY_210
*219 PHY_211
*220 PHY_212
*221 PHY_213
*222 PHY_214
*223 PHY_215
*224 PHY_216
*225 PHY_217
*226 PHY_218
*227 PHY_219
*228 PHY_220
*229 PHY_221
*230 PHY_222
*231 PHY_223
*232 PHY_224
*233 PHY_225
*234 PHY_226
*235 PHY_227
*236 PHY_228
*237 PHY_229
*238 PHY_230
*239 PHY_231
*240 PHY_232
*241 PHY_233
*242 PHY_234
*243 PHY_235
*244 PHY_236
*245 PHY_237
*246 PHY_238
*247 PHY_239
*248 PHY_240
*249 PHY_241
*250 PHY_242
*251 PHY_243
*252 PHY_244
*253 PHY_245
*254 PHY_246
*255 PHY_247
*256 PHY_248
*257 PHY_249
*258 PHY_250
*259 PHY_251
*260 PHY_252
*261 PHY_253
*262 PHY_254
*263 PHY_255
*264 PHY_256
*265 PHY_257
*266 PHY_258
*267 PHY_259
*268 PHY_260
*269 PHY_261
*270 PHY_262
*271 PHY_263
*272 PHY_264
*273 PHY_265
*274 PHY_266
*275 PHY_267
*276 PHY_268
*277 PHY_269
*278 PHY_270
*279 PHY_271
*280 PHY_272
*281 PHY_273
*282 PHY_274
*283 PHY_275
*284 PHY_276
*285 PHY_277
*286 PHY_278
*287 PHY_279
*288 PHY_280
*289 PHY_281
*290 PHY_282
*291 PHY_283
*292 PHY_284
*293 PHY_285
*294 PHY_286
*295 PHY_287
*296 PHY_288
*297 PHY_289
*298 PHY_290
*299 PHY_291
*300 PHY_292
*301 PHY_293
*302 PHY_294
*303 PHY_295
*304 PHY_296
*305 PHY_297
*306 PHY_298
*307 PHY_299
*308 PHY_300
*309 PHY_301
*310 PHY_302
*311 PHY_303
*312 PHY_304
*313 PHY_305
*314 PHY_306
*315 PHY_307
*316 PHY_308
*317 PHY_309
*318 PHY_310
*319 PHY_311
*320 PHY_312
*321 PHY_313
*322 PHY_314
*323 PHY_315
*324 PHY_316
*325 PHY_317
*326 PHY_318
*327 PHY_319
*328 PHY_320
*329 PHY_321
*330 PHY_322
*331 PHY_323
*332 PHY_324
*333 PHY_325
*334 PHY_326
*335 PHY_327
*336 PHY_328
*337 PHY_329
*338 PHY_330
*339 PHY_331
*340 PHY_332
*341 PHY_333
*342 PHY_334
*343 PHY_335
*344 PHY_336
*345 PHY_337
*346 PHY_338
*347 PHY_339
*348 PHY_340
*349 PHY_341
*350 PHY_342
*351 PHY_343
*352 PHY_344
*353 PHY_345
*354 PHY_346
*355 PHY_347
*356 PHY_348
*357 PHY_349
*358 PHY_350
*359 PHY_351
*360 TAP_352
*361 TAP_353
*362 TAP_354
*363 TAP_355
*364 TAP_356
*365 TAP_357
*366 TAP_358
*367 TAP_359
*368 TAP_360
*369 TAP_361
*370 TAP_362
*371 TAP_363
*372 TAP_364
*373 TAP_365
*374 TAP_366
*375 TAP_367
*376 TAP_368
*377 TAP_369
*378 TAP_370
*379 TAP_371
*380 TAP_372
*381 TAP_373
*382 TAP_374
*383 TAP_375
*384 TAP_376
*385 TAP_377
*386 TAP_378
*387 TAP_379
*388 TAP_380
*389 TAP_381
*390 TAP_382
*391 TAP_383
*392 TAP_384
*393 TAP_385
*394 TAP_386
*395 TAP_387
*396 TAP_388
*397 TAP_389
*398 TAP_390
*399 TAP_391
*400 TAP_392
*401 TAP_393
*402 TAP_394
*403 TAP_395
*404 TAP_396
*405 TAP_397
*406 TAP_398
*407 TAP_399
*408 TAP_400
*409 TAP_401
*410 TAP_402
*411 TAP_403
*412 TAP_404
*413 TAP_405
*414 TAP_406
*415 TAP_407
*416 TAP_408
*417 TAP_409
*418 TAP_410
*419 TAP_411
*420 TAP_412
*421 TAP_413
*422 TAP_414
*423 TAP_415
*424 TAP_416
*425 TAP_417
*426 TAP_418
*427 TAP_419
*428 TAP_420
*429 TAP_421
*430 TAP_422
*431 TAP_423
*432 TAP_424
*433 TAP_425
*434 TAP_426
*435 TAP_427
*436 TAP_428
*437 TAP_429
*438 TAP_430
*439 TAP_431
*440 TAP_432
*441 TAP_433
*442 TAP_434
*443 TAP_435
*444 TAP_436
*445 TAP_437
*446 TAP_438
*447 TAP_439
*448 TAP_440
*449 TAP_441
*450 TAP_442
*451 TAP_443
*452 TAP_444
*453 TAP_445
*454 TAP_446
*455 TAP_447
*456 TAP_448
*457 TAP_449
*458 TAP_450
*459 TAP_451
*460 TAP_452
*461 TAP_453
*462 TAP_454
*463 TAP_455
*464 TAP_456
*465 TAP_457
*466 TAP_458
*467 TAP_459
*468 TAP_460
*469 TAP_461
*470 TAP_462
*471 TAP_463
*472 TAP_464
*473 TAP_465
*474 TAP_466
*475 TAP_467
*476 TAP_468
*477 TAP_469
*478 TAP_470
*479 TAP_471
*480 TAP_472
*481 TAP_473
*482 TAP_474
*483 TAP_475
*484 TAP_476
*485 TAP_477
*486 TAP_478
*487 TAP_479
*488 TAP_480
*489 TAP_481
*490 TAP_482
*491 TAP_483
*492 TAP_484
*493 TAP_485
*494 TAP_486
*495 TAP_487
*496 TAP_488
*497 TAP_489
*498 TAP_490
*499 TAP_491
*500 TAP_492
*501 TAP_493
*502 TAP_494
*503 TAP_495
*504 TAP_496
*505 TAP_497
*506 TAP_498
*507 TAP_499
*508 TAP_500
*509 TAP_501
*510 TAP_502
*511 TAP_503
*512 TAP_504
*513 TAP_505
*514 TAP_506
*515 TAP_507
*516 TAP_508
*517 TAP_509
*518 TAP_510
*519 TAP_511
*520 TAP_512
*521 TAP_513
*522 TAP_514
*523 TAP_515
*524 TAP_516
*525 TAP_517
*526 TAP_518
*527 TAP_519
*528 TAP_520
*529 TAP_521
*530 TAP_522
*531 TAP_523
*532 TAP_524
*533 TAP_525
*534 TAP_526
*535 TAP_527
*536 TAP_528
*537 TAP_529
*538 TAP_530
*539 TAP_531
*540 TAP_532
*541 TAP_533
*542 TAP_534
*543 TAP_535
*544 TAP_536
*545 TAP_537
*546 TAP_538
*547 TAP_539
*548 TAP_540
*549 TAP_541
*550 TAP_542
*551 TAP_543
*552 TAP_544
*553 TAP_545
*554 TAP_546
*555 TAP_547
*556 TAP_548
*557 TAP_549
*558 TAP_550
*559 TAP_551
*560 TAP_552
*561 TAP_553
*562 TAP_554
*563 TAP_555
*564 TAP_556
*565 TAP_557
*566 TAP_558
*567 TAP_559
*568 TAP_560
*569 TAP_561
*570 TAP_562
*571 TAP_563
*572 TAP_564
*573 TAP_565
*574 TAP_566
*575 TAP_567
*576 TAP_568
*577 TAP_569
*578 TAP_570
*579 TAP_571
*580 TAP_572
*581 TAP_573
*582 TAP_574
*583 TAP_575
*584 TAP_576
*585 TAP_577
*586 TAP_578
*587 TAP_579
*588 TAP_580
*589 TAP_581
*590 TAP_582
*591 TAP_583
*592 TAP_584
*593 TAP_585
*594 TAP_586
*595 TAP_587
*596 TAP_588
*597 TAP_589
*598 TAP_590
*599 TAP_591
*600 TAP_592
*601 TAP_593
*602 TAP_594
*603 TAP_595
*604 TAP_596
*605 TAP_597
*606 TAP_598
*607 TAP_599
*608 TAP_600
*609 TAP_601
*610 TAP_602
*611 TAP_603
*612 TAP_604
*613 TAP_605
*614 TAP_606
*615 TAP_607
*616 TAP_608
*617 TAP_609
*618 TAP_610
*619 TAP_611
*620 TAP_612
*621 TAP_613
*622 TAP_614
*623 TAP_615
*624 TAP_616
*625 TAP_617
*626 TAP_618
*627 TAP_619
*628 TAP_620
*629 TAP_621
*630 TAP_622
*631 TAP_623
*632 TAP_624
*633 TAP_625
*634 TAP_626
*635 TAP_627
*636 TAP_628
*637 TAP_629
*638 TAP_630
*639 TAP_631
*640 TAP_632
*641 TAP_633
*642 TAP_634
*643 TAP_635
*644 TAP_636
*645 TAP_637
*646 TAP_638
*647 TAP_639
*648 TAP_640
*649 TAP_641
*650 TAP_642
*651 TAP_643
*652 TAP_644
*653 TAP_645
*654 TAP_646
*655 TAP_647
*656 TAP_648
*657 TAP_649
*658 TAP_650
*659 TAP_651
*660 TAP_652
*661 TAP_653
*662 TAP_654
*663 TAP_655
*664 TAP_656
*665 TAP_657
*666 TAP_658
*667 TAP_659
*668 TAP_660
*669 TAP_661
*670 TAP_662
*671 TAP_663
*672 TAP_664
*673 TAP_665
*674 TAP_666
*675 TAP_667
*676 TAP_668
*677 TAP_669
*678 TAP_670
*679 TAP_671
*680 TAP_672
*681 TAP_673
*682 TAP_674
*683 TAP_675
*684 TAP_676
*685 TAP_677
*686 TAP_678
*687 TAP_679
*688 TAP_680
*689 TAP_681
*690 TAP_682
*691 TAP_683
*692 TAP_684
*693 TAP_685
*694 TAP_686
*695 TAP_687
*696 TAP_688
*697 TAP_689
*698 TAP_690
*699 TAP_691
*700 TAP_692
*701 TAP_693
*702 TAP_694
*703 TAP_695
*704 TAP_696
*705 TAP_697
*706 TAP_698
*707 TAP_699
*708 TAP_700
*709 TAP_701
*710 TAP_702
*711 TAP_703
*712 TAP_704
*713 TAP_705
*714 TAP_706
*715 TAP_707
*716 TAP_708
*717 TAP_709
*718 TAP_710
*719 TAP_711
*720 TAP_712
*721 TAP_713
*722 TAP_714
*723 TAP_715
*724 TAP_716
*725 TAP_717
*726 TAP_718
*727 TAP_719
*728 TAP_720
*729 TAP_721
*730 TAP_722
*731 TAP_723
*732 TAP_724
*733 TAP_725
*734 TAP_726
*735 TAP_727
*736 TAP_728
*737 TAP_729
*738 TAP_730
*739 TAP_731
*740 TAP_732
*741 TAP_733
*742 TAP_734
*743 TAP_735
*744 TAP_736
*745 TAP_737
*746 TAP_738
*747 TAP_739
*748 TAP_740
*749 TAP_741
*750 TAP_742
*751 TAP_743
*752 TAP_744
*753 TAP_745
*754 TAP_746
*755 TAP_747
*756 TAP_748
*757 TAP_749
*758 TAP_750
*759 TAP_751
*760 TAP_752
*761 TAP_753
*762 TAP_754
*763 TAP_755
*764 TAP_756
*765 TAP_757
*766 TAP_758
*767 TAP_759
*768 TAP_760
*769 TAP_761
*770 TAP_762
*771 TAP_763
*772 TAP_764
*773 TAP_765
*774 TAP_766
*775 TAP_767
*776 TAP_768
*777 TAP_769
*778 TAP_770
*779 TAP_771
*780 TAP_772
*781 TAP_773
*782 TAP_774
*783 TAP_775
*784 TAP_776
*785 TAP_777
*786 TAP_778
*787 TAP_779
*788 TAP_780
*789 TAP_781
*790 TAP_782
*791 TAP_783
*792 TAP_784
*793 TAP_785
*794 TAP_786
*795 TAP_787
*796 TAP_788
*797 TAP_789
*798 TAP_790
*799 TAP_791
*800 TAP_792
*801 TAP_793
*802 TAP_794
*803 TAP_795
*804 TAP_796
*805 TAP_797
*806 TAP_798
*807 TAP_799
*808 TAP_800
*809 TAP_801
*810 TAP_802
*811 TAP_803
*812 TAP_804
*813 TAP_805
*814 TAP_806
*815 TAP_807
*816 TAP_808
*817 TAP_809
*818 TAP_810
*819 TAP_811
*820 TAP_812
*821 TAP_813
*822 TAP_814
*823 TAP_815
*824 TAP_816
*825 TAP_817
*826 TAP_818
*827 TAP_819
*828 TAP_820
*829 TAP_821
*830 TAP_822
*831 TAP_823
*832 TAP_824
*833 TAP_825
*834 TAP_826
*835 TAP_827
*836 TAP_828
*837 TAP_829
*838 TAP_830
*839 TAP_831
*840 TAP_832
*841 TAP_833
*842 TAP_834
*843 TAP_835
*844 TAP_836
*845 TAP_837
*846 TAP_838
*847 TAP_839
*848 TAP_840
*849 TAP_841
*850 TAP_842
*851 TAP_843
*852 TAP_844
*853 TAP_845
*854 TAP_846
*855 TAP_847
*856 TAP_848
*857 TAP_849
*858 TAP_850
*859 TAP_851
*860 TAP_852
*861 TAP_853
*862 TAP_854
*863 TAP_855
*864 TAP_856
*865 TAP_857
*866 TAP_858
*867 TAP_859
*868 TAP_860
*869 TAP_861
*870 TAP_862
*871 TAP_863
*872 TAP_864
*873 TAP_865
*874 TAP_866
*875 TAP_867
*876 TAP_868
*877 TAP_869
*878 TAP_870
*879 TAP_871
*880 TAP_872
*881 TAP_873
*882 TAP_874
*883 TAP_875
*884 TAP_876
*885 TAP_877
*886 TAP_878
*887 TAP_879
*888 TAP_880
*889 TAP_881
*890 TAP_882
*891 TAP_883
*892 TAP_884
*893 TAP_885
*894 TAP_886
*895 TAP_887
*896 TAP_888
*897 TAP_889
*898 TAP_890
*899 TAP_891
*900 TAP_892
*901 TAP_893
*902 TAP_894
*903 TAP_895
*904 TAP_896
*905 TAP_897
*906 TAP_898
*907 TAP_899
*908 TAP_900
*909 TAP_901
*910 TAP_902
*911 TAP_903
*912 TAP_904
*913 TAP_905
*914 TAP_906
*915 TAP_907
*916 TAP_908
*917 TAP_909
*918 TAP_910
*919 TAP_911
*920 TAP_912
*921 TAP_913
*922 TAP_914
*923 TAP_915
*924 TAP_916
*925 TAP_917
*926 TAP_918
*927 TAP_919
*928 TAP_920
*929 TAP_921
*930 TAP_922
*931 TAP_923
*932 TAP_924
*933 TAP_925
*934 TAP_926
*935 TAP_927
*936 TAP_928
*937 TAP_929
*938 TAP_930
*939 TAP_931
*940 TAP_932
*941 TAP_933
*942 TAP_934
*943 TAP_935
*944 TAP_936
*945 TAP_937
*946 TAP_938
*947 TAP_939
*948 TAP_940
*949 TAP_941
*950 TAP_942
*951 TAP_943
*952 TAP_944
*953 TAP_945
*954 TAP_946
*955 TAP_947
*956 TAP_948
*957 TAP_949
*958 TAP_950
*959 TAP_951
*960 TAP_952
*961 TAP_953
*962 TAP_954
*963 TAP_955
*964 TAP_956
*965 TAP_957
*966 TAP_958
*967 TAP_959
*968 TAP_960
*969 TAP_961
*970 TAP_962
*971 TAP_963
*972 TAP_964
*973 TAP_965
*974 TAP_966
*975 TAP_967
*976 TAP_968
*977 TAP_969
*978 TAP_970
*979 TAP_971
*980 TAP_972
*981 TAP_973
*982 TAP_974
*983 TAP_975
*984 TAP_976
*985 TAP_977
*986 TAP_978
*987 TAP_979
*988 TAP_980
*989 TAP_981
*990 TAP_982
*991 TAP_983
*992 TAP_984
*993 TAP_985
*994 TAP_986
*995 TAP_987
*996 TAP_988
*997 TAP_989
*998 TAP_990
*999 TAP_991
*1000 TAP_992
*1001 TAP_993
*1002 TAP_994
*1003 TAP_995
*1004 TAP_996
*1005 TAP_997
*1006 TAP_998
*1007 TAP_999
*1008 TAP_1000
*1009 TAP_1001
*1010 TAP_1002
*1011 TAP_1003
*1012 TAP_1004
*1013 TAP_1005
*1014 TAP_1006
*1015 TAP_1007
*1016 TAP_1008
*1017 TAP_1009
*1018 TAP_1010
*1019 TAP_1011
*1020 TAP_1012
*1021 TAP_1013
*1022 TAP_1014
*1023 TAP_1015
*1024 TAP_1016
*1025 TAP_1017
*1026 TAP_1018
*1027 TAP_1019
*1028 TAP_1020
*1029 TAP_1021
*1030 TAP_1022
*1031 TAP_1023
*1032 TAP_1024
*1033 TAP_1025
*1034 TAP_1026
*1035 TAP_1027
*1036 TAP_1028
*1037 TAP_1029
*1038 TAP_1030
*1039 TAP_1031
*1040 TAP_1032
*1041 TAP_1033
*1042 TAP_1034
*1043 TAP_1035
*1044 TAP_1036
*1045 TAP_1037
*1046 TAP_1038
*1047 TAP_1039
*1048 TAP_1040
*1049 TAP_1041
*1050 TAP_1042
*1051 TAP_1043
*1052 TAP_1044
*1053 TAP_1045
*1054 TAP_1046
*1055 TAP_1047
*1056 TAP_1048
*1057 TAP_1049
*1058 TAP_1050
*1059 TAP_1051
*1060 TAP_1052
*1061 TAP_1053
*1062 TAP_1054
*1063 TAP_1055
*1064 TAP_1056
*1065 TAP_1057
*1066 TAP_1058
*1067 TAP_1059
*1068 TAP_1060
*1069 TAP_1061
*1070 TAP_1062
*1071 TAP_1063
*1072 TAP_1064
*1073 TAP_1065
*1074 TAP_1066
*1075 TAP_1067
*1076 TAP_1068
*1077 TAP_1069
*1078 TAP_1070
*1079 TAP_1071
*1080 TAP_1072
*1081 TAP_1073
*1082 TAP_1074
*1083 TAP_1075
*1084 TAP_1076
*1085 TAP_1077
*1086 TAP_1078
*1087 TAP_1079
*1088 TAP_1080
*1089 TAP_1081
*1090 TAP_1082
*1091 TAP_1083
*1092 TAP_1084
*1093 TAP_1085
*1094 TAP_1086
*1095 TAP_1087
*1096 TAP_1088
*1097 TAP_1089
*1098 TAP_1090
*1099 TAP_1091
*1100 TAP_1092
*1101 TAP_1093
*1102 TAP_1094
*1103 TAP_1095
*1104 TAP_1096
*1105 TAP_1097
*1106 TAP_1098
*1107 TAP_1099
*1108 TAP_1100
*1109 TAP_1101
*1110 TAP_1102
*1111 TAP_1103
*1112 TAP_1104
*1113 TAP_1105
*1114 TAP_1106
*1115 TAP_1107
*1116 TAP_1108
*1117 TAP_1109
*1118 TAP_1110
*1119 TAP_1111
*1120 TAP_1112
*1121 TAP_1113
*1122 TAP_1114
*1123 TAP_1115
*1124 TAP_1116
*1125 TAP_1117
*1126 TAP_1118
*1127 TAP_1119
*1128 TAP_1120
*1129 TAP_1121
*1130 TAP_1122
*1131 TAP_1123
*1132 TAP_1124
*1133 TAP_1125
*1134 TAP_1126
*1135 TAP_1127
*1136 TAP_1128
*1137 TAP_1129
*1138 TAP_1130
*1139 TAP_1131
*1140 TAP_1132
*1141 TAP_1133
*1142 TAP_1134
*1143 TAP_1135
*1144 TAP_1136
*1145 TAP_1137
*1146 TAP_1138
*1147 TAP_1139
*1148 TAP_1140
*1149 TAP_1141
*1150 TAP_1142
*1151 TAP_1143
*1152 TAP_1144
*1153 TAP_1145
*1154 TAP_1146
*1155 TAP_1147
*1156 TAP_1148
*1157 TAP_1149
*1158 TAP_1150
*1159 TAP_1151
*1160 TAP_1152
*1161 TAP_1153
*1162 TAP_1154
*1163 TAP_1155
*1164 TAP_1156
*1165 TAP_1157
*1166 TAP_1158
*1167 TAP_1159
*1168 TAP_1160
*1169 TAP_1161
*1170 TAP_1162
*1171 TAP_1163
*1172 TAP_1164
*1173 TAP_1165
*1174 TAP_1166
*1175 TAP_1167
*1176 TAP_1168
*1177 TAP_1169
*1178 TAP_1170
*1179 TAP_1171
*1180 TAP_1172
*1181 TAP_1173
*1182 TAP_1174
*1183 TAP_1175
*1184 TAP_1176
*1185 TAP_1177
*1186 TAP_1178
*1187 TAP_1179
*1188 TAP_1180
*1189 TAP_1181
*1190 TAP_1182
*1191 TAP_1183
*1192 TAP_1184
*1193 TAP_1185
*1194 TAP_1186
*1195 TAP_1187
*1196 TAP_1188
*1197 TAP_1189
*1198 TAP_1190
*1199 TAP_1191
*1200 TAP_1192
*1201 TAP_1193
*1202 TAP_1194
*1203 TAP_1195
*1204 TAP_1196
*1205 TAP_1197
*1206 TAP_1198
*1207 TAP_1199
*1208 TAP_1200
*1209 TAP_1201
*1210 TAP_1202
*1211 TAP_1203
*1212 TAP_1204
*1213 TAP_1205
*1214 TAP_1206
*1215 TAP_1207
*1216 TAP_1208
*1217 TAP_1209
*1218 TAP_1210
*1219 TAP_1211
*1220 TAP_1212
*1221 TAP_1213
*1222 TAP_1214
*1223 TAP_1215
*1224 TAP_1216
*1225 TAP_1217
*1226 TAP_1218
*1227 TAP_1219
*1228 TAP_1220
*1229 TAP_1221
*1230 TAP_1222
*1231 TAP_1223
*1232 TAP_1224
*1233 TAP_1225
*1234 TAP_1226
*1235 TAP_1227
*1236 TAP_1228
*1237 TAP_1229
*1238 TAP_1230
*1239 TAP_1231
*1240 TAP_1232
*1241 TAP_1233
*1242 TAP_1234
*1243 TAP_1235
*1244 TAP_1236
*1245 TAP_1237
*1246 TAP_1238
*1247 TAP_1239
*1248 TAP_1240
*1249 TAP_1241
*1250 TAP_1242
*1251 TAP_1243
*1252 TAP_1244
*1253 TAP_1245
*1254 TAP_1246
*1255 TAP_1247
*1256 TAP_1248
*1257 TAP_1249
*1258 TAP_1250
*1259 TAP_1251
*1260 TAP_1252
*1261 TAP_1253
*1262 TAP_1254
*1263 TAP_1255
*1264 TAP_1256
*1265 TAP_1257
*1266 TAP_1258
*1267 TAP_1259
*1268 TAP_1260
*1269 TAP_1261
*1270 TAP_1262
*1271 TAP_1263
*1272 TAP_1264
*1273 TAP_1265
*1274 TAP_1266
*1275 TAP_1267
*1276 TAP_1268
*1277 TAP_1269
*1278 TAP_1270
*1279 TAP_1271
*1280 TAP_1272
*1281 TAP_1273
*1282 TAP_1274
*1283 TAP_1275
*1284 TAP_1276
*1285 TAP_1277
*1286 TAP_1278
*1287 TAP_1279
*1288 TAP_1280
*1289 TAP_1281
*1290 TAP_1282
*1291 TAP_1283
*1292 TAP_1284
*1293 TAP_1285
*1294 TAP_1286
*1295 TAP_1287
*1296 TAP_1288
*1297 TAP_1289
*1298 TAP_1290
*1299 TAP_1291
*1300 TAP_1292
*1301 TAP_1293
*1302 TAP_1294
*1303 TAP_1295
*1304 TAP_1296
*1305 TAP_1297
*1306 TAP_1298
*1307 TAP_1299
*1308 TAP_1300
*1309 TAP_1301
*1310 TAP_1302
*1311 TAP_1303
*1312 TAP_1304
*1313 TAP_1305
*1314 TAP_1306
*1315 TAP_1307
*1316 TAP_1308
*1317 TAP_1309
*1318 TAP_1310
*1319 TAP_1311
*1320 TAP_1312
*1321 TAP_1313
*1322 TAP_1314
*1323 TAP_1315
*1324 TAP_1316
*1325 TAP_1317
*1326 TAP_1318
*1327 TAP_1319
*1328 TAP_1320
*1329 TAP_1321
*1330 TAP_1322
*1331 TAP_1323
*1332 TAP_1324
*1333 TAP_1325
*1334 TAP_1326
*1335 TAP_1327
*1336 TAP_1328
*1337 TAP_1329
*1338 TAP_1330
*1339 TAP_1331
*1340 TAP_1332
*1341 TAP_1333
*1342 TAP_1334
*1343 TAP_1335
*1344 TAP_1336
*1345 TAP_1337
*1346 TAP_1338
*1347 TAP_1339
*1348 TAP_1340
*1349 TAP_1341
*1350 TAP_1342
*1351 TAP_1343
*1352 TAP_1344
*1353 TAP_1345
*1354 TAP_1346
*1355 TAP_1347
*1356 TAP_1348
*1357 TAP_1349
*1358 TAP_1350
*1359 TAP_1351
*1360 TAP_1352
*1361 TAP_1353
*1362 TAP_1354
*1363 TAP_1355
*1364 TAP_1356
*1365 TAP_1357
*1366 TAP_1358
*1367 TAP_1359
*1368 TAP_1360
*1369 TAP_1361
*1370 TAP_1362
*1371 TAP_1363
*1372 TAP_1364
*1373 TAP_1365
*1374 TAP_1366
*1375 TAP_1367
*1376 TAP_1368
*1377 TAP_1369
*1378 TAP_1370
*1379 TAP_1371
*1380 TAP_1372
*1381 TAP_1373
*1382 TAP_1374
*1383 TAP_1375
*1384 TAP_1376
*1385 TAP_1377
*1386 TAP_1378
*1387 TAP_1379
*1388 TAP_1380
*1389 TAP_1381
*1390 TAP_1382
*1391 TAP_1383
*1392 TAP_1384
*1393 TAP_1385
*1394 TAP_1386
*1395 TAP_1387
*1396 TAP_1388
*1397 TAP_1389
*1398 TAP_1390
*1399 TAP_1391
*1400 TAP_1392
*1401 TAP_1393
*1402 TAP_1394
*1403 TAP_1395
*1404 TAP_1396
*1405 TAP_1397
*1406 TAP_1398
*1407 TAP_1399
*1408 TAP_1400
*1409 TAP_1401
*1410 TAP_1402
*1411 TAP_1403
*1412 TAP_1404
*1413 TAP_1405
*1414 TAP_1406
*1415 TAP_1407
*1416 TAP_1408
*1417 TAP_1409
*1418 TAP_1410
*1419 TAP_1411
*1420 TAP_1412
*1421 TAP_1413
*1422 TAP_1414
*1423 TAP_1415
*1424 TAP_1416
*1425 TAP_1417
*1426 TAP_1418
*1427 TAP_1419
*1428 TAP_1420
*1429 TAP_1421
*1430 TAP_1422
*1431 TAP_1423
*1432 TAP_1424
*1433 TAP_1425
*1434 TAP_1426
*1435 TAP_1427
*1436 TAP_1428
*1437 TAP_1429
*1438 TAP_1430
*1439 TAP_1431
*1440 TAP_1432
*1441 TAP_1433
*1442 TAP_1434
*1443 TAP_1435
*1444 TAP_1436
*1445 TAP_1437
*1446 TAP_1438
*1447 TAP_1439
*1448 TAP_1440
*1449 TAP_1441
*1450 TAP_1442
*1451 TAP_1443
*1452 TAP_1444
*1453 TAP_1445
*1454 TAP_1446
*1455 TAP_1447
*1456 TAP_1448
*1457 TAP_1449
*1458 TAP_1450
*1459 TAP_1451
*1460 TAP_1452
*1461 TAP_1453
*1462 TAP_1454
*1463 TAP_1455
*1464 TAP_1456
*1465 TAP_1457
*1466 TAP_1458
*1467 TAP_1459
*1468 TAP_1460
*1469 TAP_1461
*1470 TAP_1462
*1471 TAP_1463
*1472 TAP_1464
*1473 TAP_1465
*1474 TAP_1466
*1475 TAP_1467
*1476 TAP_1468
*1477 TAP_1469
*1478 TAP_1470
*1479 TAP_1471
*1480 TAP_1472
*1481 TAP_1473
*1482 TAP_1474
*1483 TAP_1475
*1484 TAP_1476
*1485 TAP_1477
*1486 TAP_1478
*1487 TAP_1479
*1488 TAP_1480
*1489 TAP_1481
*1490 TAP_1482
*1491 TAP_1483
*1492 TAP_1484
*1493 TAP_1485
*1494 TAP_1486
*1495 TAP_1487
*1496 TAP_1488
*1497 TAP_1489
*1498 TAP_1490
*1499 TAP_1491
*1500 TAP_1492
*1501 TAP_1493
*1502 TAP_1494
*1503 TAP_1495
*1504 TAP_1496
*1505 TAP_1497
*1506 TAP_1498
*1507 TAP_1499
*1508 TAP_1500
*1509 TAP_1501
*1510 TAP_1502
*1511 TAP_1503
*1512 TAP_1504
*1513 TAP_1505
*1514 TAP_1506
*1515 TAP_1507
*1516 TAP_1508
*1517 TAP_1509
*1518 TAP_1510
*1519 TAP_1511
*1520 TAP_1512
*1521 TAP_1513
*1522 TAP_1514
*1523 TAP_1515
*1524 TAP_1516
*1525 TAP_1517
*1526 TAP_1518
*1527 TAP_1519
*1528 TAP_1520
*1529 TAP_1521
*1530 TAP_1522
*1531 TAP_1523
*1532 TAP_1524
*1533 TAP_1525
*1534 TAP_1526
*1535 TAP_1527
*1536 TAP_1528
*1537 TAP_1529
*1538 TAP_1530
*1539 TAP_1531
*1540 TAP_1532
*1541 TAP_1533
*1542 TAP_1534
*1543 TAP_1535
*1544 TAP_1536
*1545 TAP_1537
*1546 TAP_1538
*1547 TAP_1539
*1548 TAP_1540
*1549 TAP_1541
*1550 TAP_1542
*1551 TAP_1543
*1552 TAP_1544
*1553 TAP_1545
*1554 TAP_1546
*1555 TAP_1547
*1556 TAP_1548
*1557 TAP_1549
*1558 TAP_1550
*1559 TAP_1551
*1560 TAP_1552
*1561 TAP_1553
*1562 TAP_1554
*1563 TAP_1555
*1564 TAP_1556
*1565 TAP_1557
*1566 TAP_1558
*1567 TAP_1559
*1568 TAP_1560
*1569 TAP_1561
*1570 TAP_1562
*1571 TAP_1563
*1572 TAP_1564
*1573 TAP_1565
*1574 TAP_1566
*1575 TAP_1567
*1576 TAP_1568
*1577 TAP_1569
*1578 TAP_1570
*1579 TAP_1571
*1580 TAP_1572
*1581 TAP_1573
*1582 TAP_1574
*1583 TAP_1575
*1584 TAP_1576
*1585 TAP_1577
*1586 TAP_1578
*1587 TAP_1579
*1588 TAP_1580
*1589 TAP_1581
*1590 TAP_1582
*1591 TAP_1583
*1592 TAP_1584
*1593 TAP_1585
*1594 TAP_1586
*1595 TAP_1587
*1596 TAP_1588
*1597 TAP_1589
*1598 TAP_1590
*1599 TAP_1591
*1600 TAP_1592
*1601 TAP_1593
*1602 TAP_1594
*1603 TAP_1595
*1604 TAP_1596
*1605 TAP_1597
*1606 TAP_1598
*1607 TAP_1599
*1608 TAP_1600
*1609 TAP_1601
*1610 TAP_1602
*1611 TAP_1603
*1612 TAP_1604
*1613 TAP_1605
*1614 TAP_1606
*1615 TAP_1607
*1616 TAP_1608
*1617 TAP_1609
*1618 TAP_1610
*1619 TAP_1611
*1620 TAP_1612
*1621 TAP_1613
*1622 TAP_1614
*1623 TAP_1615
*1624 TAP_1616
*1625 TAP_1617
*1626 TAP_1618
*1627 TAP_1619
*1628 TAP_1620
*1629 TAP_1621
*1630 TAP_1622
*1631 TAP_1623
*1632 TAP_1624
*1633 TAP_1625
*1634 TAP_1626
*1635 TAP_1627
*1636 TAP_1628
*1637 TAP_1629
*1638 TAP_1630
*1639 TAP_1631
*1640 TAP_1632
*1641 TAP_1633
*1642 TAP_1634
*1643 TAP_1635
*1644 TAP_1636
*1645 TAP_1637
*1646 TAP_1638
*1647 TAP_1639
*1648 TAP_1640
*1649 TAP_1641
*1650 TAP_1642
*1651 TAP_1643
*1652 TAP_1644
*1653 TAP_1645
*1654 TAP_1646
*1655 TAP_1647
*1656 TAP_1648
*1657 TAP_1649
*1658 TAP_1650
*1659 TAP_1651
*1660 TAP_1652
*1661 TAP_1653
*1662 TAP_1654
*1663 TAP_1655
*1664 TAP_1656
*1665 TAP_1657
*1666 TAP_1658
*1667 TAP_1659
*1668 TAP_1660
*1669 TAP_1661
*1670 TAP_1662
*1671 TAP_1663
*1672 TAP_1664
*1673 TAP_1665
*1674 TAP_1666
*1675 TAP_1667
*1676 TAP_1668
*1677 TAP_1669
*1678 TAP_1670
*1679 TAP_1671
*1680 TAP_1672
*1681 TAP_1673
*1682 TAP_1674
*1683 TAP_1675
*1684 TAP_1676
*1685 TAP_1677
*1686 TAP_1678
*1687 TAP_1679
*1688 TAP_1680
*1689 TAP_1681
*1690 TAP_1682
*1691 TAP_1683
*1692 TAP_1684
*1693 TAP_1685
*1694 TAP_1686
*1695 TAP_1687
*1696 TAP_1688
*1697 TAP_1689
*1698 TAP_1690
*1699 TAP_1691
*1700 TAP_1692
*1701 TAP_1693
*1702 TAP_1694
*1703 TAP_1695
*1704 TAP_1696
*1705 TAP_1697
*1706 TAP_1698
*1707 TAP_1699
*1708 TAP_1700
*1709 TAP_1701
*1710 TAP_1702
*1711 TAP_1703
*1712 TAP_1704
*1713 TAP_1705
*1714 TAP_1706
*1715 TAP_1707
*1716 TAP_1708
*1717 TAP_1709
*1718 TAP_1710
*1719 TAP_1711
*1720 TAP_1712
*1721 TAP_1713
*1722 TAP_1714
*1723 TAP_1715
*1724 TAP_1716
*1725 TAP_1717
*1726 TAP_1718
*1727 TAP_1719
*1728 TAP_1720
*1729 TAP_1721
*1730 TAP_1722
*1731 TAP_1723
*1732 TAP_1724
*1733 TAP_1725
*1734 TAP_1726
*1735 TAP_1727
*1736 TAP_1728
*1737 TAP_1729
*1738 TAP_1730
*1739 TAP_1731
*1740 TAP_1732
*1741 TAP_1733
*1742 TAP_1734
*1743 TAP_1735
*1744 TAP_1736
*1745 TAP_1737
*1746 TAP_1738
*1747 TAP_1739
*1748 TAP_1740
*1749 TAP_1741
*1750 TAP_1742
*1751 TAP_1743
*1752 TAP_1744
*1753 TAP_1745
*1754 TAP_1746
*1755 TAP_1747
*1756 TAP_1748
*1757 TAP_1749
*1758 TAP_1750
*1759 TAP_1751
*1760 TAP_1752
*1761 TAP_1753
*1762 TAP_1754
*1763 TAP_1755
*1764 TAP_1756
*1765 TAP_1757
*1766 TAP_1758
*1767 TAP_1759
*1768 TAP_1760
*1769 TAP_1761
*1770 TAP_1762
*1771 TAP_1763
*1772 TAP_1764
*1773 TAP_1765
*1774 TAP_1766
*1775 TAP_1767
*1776 TAP_1768
*1777 TAP_1769
*1778 TAP_1770
*1779 TAP_1771
*1780 TAP_1772
*1781 TAP_1773
*1782 TAP_1774
*1783 TAP_1775
*1784 TAP_1776
*1785 TAP_1777
*1786 TAP_1778
*1787 TAP_1779
*1788 TAP_1780
*1789 TAP_1781
*1790 TAP_1782
*1791 TAP_1783
*1792 TAP_1784
*1793 TAP_1785
*1794 TAP_1786
*1795 TAP_1787
*1796 TAP_1788
*1797 TAP_1789
*1798 TAP_1790
*1799 TAP_1791
*1800 TAP_1792
*1801 TAP_1793
*1802 TAP_1794
*1803 TAP_1795
*1804 TAP_1796
*1805 TAP_1797
*1806 TAP_1798
*1807 TAP_1799
*1808 TAP_1800
*1809 TAP_1801
*1810 TAP_1802
*1811 TAP_1803
*1812 TAP_1804
*1813 TAP_1805
*1814 TAP_1806
*1815 TAP_1807
*1816 TAP_1808
*1817 TAP_1809
*1818 TAP_1810
*1819 TAP_1811
*1820 TAP_1812
*1821 TAP_1813
*1822 TAP_1814
*1823 TAP_1815
*1824 TAP_1816
*1825 TAP_1817
*1826 TAP_1818
*1827 TAP_1819
*1828 TAP_1820
*1829 TAP_1821
*1830 TAP_1822
*1831 TAP_1823
*1832 TAP_1824
*1833 TAP_1825
*1834 TAP_1826
*1835 TAP_1827
*1836 TAP_1828
*1837 TAP_1829
*1838 TAP_1830
*1839 TAP_1831
*1840 TAP_1832
*1841 TAP_1833
*1842 TAP_1834
*1843 TAP_1835
*1844 TAP_1836
*1845 TAP_1837
*1846 TAP_1838
*1847 TAP_1839
*1848 TAP_1840
*1849 TAP_1841
*1850 TAP_1842
*1851 TAP_1843
*1852 TAP_1844
*1853 TAP_1845
*1854 TAP_1846
*1855 TAP_1847
*1856 TAP_1848
*1857 TAP_1849
*1858 TAP_1850
*1859 TAP_1851
*1860 TAP_1852
*1861 TAP_1853
*1862 TAP_1854
*1863 TAP_1855
*1864 TAP_1856
*1865 TAP_1857
*1866 TAP_1858
*1867 TAP_1859
*1868 TAP_1860
*1869 TAP_1861
*1870 TAP_1862
*1871 TAP_1863
*1872 TAP_1864
*1873 TAP_1865
*1874 TAP_1866
*1875 TAP_1867
*1876 TAP_1868
*1877 TAP_1869
*1878 TAP_1870
*1879 TAP_1871
*1880 TAP_1872
*1881 TAP_1873
*1882 TAP_1874
*1883 TAP_1875
*1884 TAP_1876
*1885 TAP_1877
*1886 TAP_1878
*1887 TAP_1879
*1888 TAP_1880
*1889 TAP_1881
*1890 TAP_1882
*1891 TAP_1883
*1892 TAP_1884
*1893 TAP_1885
*1894 TAP_1886
*1895 TAP_1887
*1896 TAP_1888
*1897 TAP_1889
*1898 TAP_1890
*1899 TAP_1891
*1900 TAP_1892
*1901 TAP_1893
*1902 TAP_1894
*1903 TAP_1895
*1904 TAP_1896
*1905 TAP_1897
*1906 TAP_1898
*1907 TAP_1899
*1908 TAP_1900
*1909 TAP_1901
*1910 TAP_1902
*1911 TAP_1903
*1912 TAP_1904
*1913 TAP_1905
*1914 TAP_1906
*1915 TAP_1907
*1916 TAP_1908
*1917 TAP_1909
*1918 TAP_1910
*1919 TAP_1911
*1920 TAP_1912
*1921 TAP_1913
*1922 TAP_1914
*1923 TAP_1915
*1924 TAP_1916
*1925 TAP_1917
*1926 TAP_1918
*1927 TAP_1919
*1928 TAP_1920
*1929 TAP_1921
*1930 TAP_1922
*1931 TAP_1923
*1932 TAP_1924
*1933 TAP_1925
*1934 TAP_1926
*1935 TAP_1927
*1936 TAP_1928
*1937 TAP_1929
*1938 TAP_1930
*1939 TAP_1931
*1940 TAP_1932
*1941 TAP_1933
*1942 TAP_1934
*1943 TAP_1935
*1944 TAP_1936
*1945 TAP_1937
*1946 TAP_1938
*1947 TAP_1939
*1948 TAP_1940
*1949 TAP_1941
*1950 TAP_1942
*1951 TAP_1943
*1952 TAP_1944
*1953 TAP_1945
*1954 TAP_1946
*1955 TAP_1947
*1956 TAP_1948
*1957 TAP_1949
*1958 TAP_1950
*1959 TAP_1951
*1960 TAP_1952
*1961 TAP_1953
*1962 TAP_1954
*1963 TAP_1955
*1964 TAP_1956
*1965 TAP_1957
*1966 TAP_1958
*1967 TAP_1959
*1968 TAP_1960
*1969 TAP_1961
*1970 TAP_1962
*1971 TAP_1963
*1972 TAP_1964
*1973 TAP_1965
*1974 TAP_1966
*1975 TAP_1967
*1976 TAP_1968
*1977 TAP_1969
*1978 TAP_1970
*1979 TAP_1971
*1980 TAP_1972
*1981 TAP_1973
*1982 TAP_1974
*1983 TAP_1975
*1984 TAP_1976
*1985 TAP_1977
*1986 TAP_1978
*1987 TAP_1979
*1988 TAP_1980
*1989 TAP_1981
*1990 TAP_1982
*1991 TAP_1983
*1992 TAP_1984
*1993 TAP_1985
*1994 TAP_1986
*1995 TAP_1987
*1996 TAP_1988
*1997 TAP_1989
*1998 TAP_1990
*1999 TAP_1991
*2000 TAP_1992
*2001 TAP_1993
*2002 TAP_1994
*2003 TAP_1995
*2004 TAP_1996
*2005 TAP_1997
*2006 TAP_1998
*2007 TAP_1999
*2008 TAP_2000
*2009 TAP_2001
*2010 TAP_2002
*2011 TAP_2003
*2012 TAP_2004
*2013 TAP_2005
*2014 TAP_2006
*2015 TAP_2007
*2016 TAP_2008
*2017 TAP_2009
*2018 TAP_2010
*2019 TAP_2011
*2020 TAP_2012
*2021 TAP_2013
*2022 TAP_2014
*2023 TAP_2015
*2024 TAP_2016
*2025 TAP_2017
*2026 TAP_2018
*2027 TAP_2019
*2028 TAP_2020
*2029 TAP_2021
*2030 TAP_2022
*2031 TAP_2023
*2032 TAP_2024
*2033 TAP_2025
*2034 TAP_2026
*2035 TAP_2027
*2036 TAP_2028
*2037 TAP_2029
*2038 TAP_2030
*2039 TAP_2031
*2040 TAP_2032
*2041 TAP_2033
*2042 TAP_2034
*2043 TAP_2035
*2044 TAP_2036
*2045 TAP_2037
*2046 TAP_2038
*2047 TAP_2039
*2048 TAP_2040
*2049 TAP_2041
*2050 TAP_2042
*2051 TAP_2043
*2052 TAP_2044
*2053 TAP_2045
*2054 TAP_2046
*2055 TAP_2047
*2056 TAP_2048
*2057 TAP_2049
*2058 TAP_2050
*2059 TAP_2051
*2060 TAP_2052
*2061 TAP_2053
*2062 TAP_2054
*2063 TAP_2055
*2064 TAP_2056
*2065 TAP_2057
*2066 TAP_2058
*2067 TAP_2059
*2068 TAP_2060
*2069 TAP_2061
*2070 TAP_2062
*2071 TAP_2063
*2072 TAP_2064
*2073 TAP_2065
*2074 TAP_2066
*2075 TAP_2067
*2076 TAP_2068
*2077 TAP_2069
*2078 TAP_2070
*2079 TAP_2071
*2080 TAP_2072
*2081 TAP_2073
*2082 TAP_2074
*2083 TAP_2075
*2084 TAP_2076
*2085 TAP_2077
*2086 TAP_2078
*2087 TAP_2079
*2088 TAP_2080
*2089 TAP_2081
*2090 TAP_2082
*2091 TAP_2083
*2092 TAP_2084
*2093 TAP_2085
*2094 TAP_2086
*2095 TAP_2087
*2096 TAP_2088
*2097 TAP_2089
*2098 TAP_2090
*2099 TAP_2091
*2100 TAP_2092
*2101 TAP_2093
*2102 TAP_2094
*2103 TAP_2095
*2104 TAP_2096
*2105 TAP_2097
*2106 TAP_2098
*2107 TAP_2099
*2108 TAP_2100
*2109 TAP_2101
*2110 TAP_2102
*2111 TAP_2103
*2112 TAP_2104
*2113 TAP_2105
*2114 TAP_2106
*2115 TAP_2107
*2116 TAP_2108
*2117 TAP_2109
*2118 TAP_2110
*2119 TAP_2111
*2120 TAP_2112
*2121 TAP_2113
*2122 TAP_2114
*2123 TAP_2115
*2124 TAP_2116
*2125 TAP_2117
*2126 TAP_2118
*2127 TAP_2119
*2128 TAP_2120
*2129 TAP_2121