*SPEF "ieee 1481-1999"
*DESIGN "msvsd4bituc"
*DATE "11:11:11 Fri 11 11, 1111"
*VENDOR "OpenRCX"
*PROGRAM "Parallel Extraction"
*VERSION "1.0"
*DESIGN_FLOW "NAME_SCOPE LOCAL" "PIN_CAP NONE"
*DIVIDER /
*DELIMITER :
*BUS_DELIMITER []
*T_UNIT 1 NS
*C_UNIT 1 PF
*R_UNIT 1 OHM
*L_UNIT 1 HENRY

*NAME_MAP
*1 INN
*2 OUT
*3 ring_adc
*6 r_VSS
*7 r_VDD
*8 ADC_1BIT
*9 RING_OSCILLATOR
*10 PHY_0
*11 PHY_1
*12 PHY_2
*13 PHY_3
*14 PHY_4
*15 PHY_5
*16 PHY_6
*17 PHY_7
*18 PHY_8
*19 PHY_9
*20 PHY_10
*21 PHY_11
*22 PHY_12
*23 PHY_13
*24 PHY_14
*25 PHY_15
*26 PHY_16
*27 PHY_17
*28 PHY_18
*29 PHY_19
*30 PHY_20
*31 PHY_21
*32 PHY_22
*33 PHY_23
*34 PHY_24
*35 PHY_25
*36 PHY_26
*37 PHY_27
*38 PHY_28
*39 PHY_29
*40 PHY_30
*41 PHY_31
*42 PHY_32
*43 PHY_33
*44 PHY_34
*45 PHY_35
*46 PHY_36
*47 PHY_37
*48 PHY_38
*49 PHY_39
*50 PHY_40
*51 PHY_41
*52 PHY_42
*53 PHY_43
*54 PHY_44
*55 PHY_45
*56 PHY_46
*57 PHY_47
*58 PHY_48
*59 PHY_49
*60 PHY_50
*61 PHY_51
*62 PHY_52
*63 PHY_53
*64 PHY_54
*65 PHY_55
*66 PHY_56
*67 PHY_57
*68 PHY_58
*69 PHY_59
*70 TAP_60
*71 TAP_61
*72 TAP_62
*73 TAP_63
*74 TAP_64
*75 TAP_65
*76 TAP_66
*77 TAP_67
*78 TAP_68
*79 TAP_69
*80 TAP_70
*81 TAP_71
*82 TAP_72
*83 TAP_73
*84 TAP_74
*85 TAP_75
*86 TAP_76
*87 TAP_77
*88 TAP_78
*89 TAP_79
*90 TAP_80
*91 TAP_81
*92 TAP_82
*93 TAP_83
*94 TAP_84
*95 TAP_85
*96 TAP_86
*97 FILLER_0_4
*98 FILLER_0_12
*99 FILLER_0_20
*100 FILLER_0_28
*101 FILLER_0_31
*102 FILLER_0_39
*103 FILLER_0_47
*104 FILLER_0_55
*105 FILLER_0_59
*106 FILLER_0_61
*107 FILLER_0_69
*108 FILLER_0_77
*109 FILLER_0_85
*110 FILLER_0_89
*111 FILLER_0_91
*112 FILLER_0_99
*113 FILLER_0_107
*114 FILLER_0_115
*115 FILLER_0_119
*116 FILLER_0_121
*117 FILLER_0_129
*118 FILLER_0_137
*119 FILLER_0_145
*120 FILLER_0_149
*121 FILLER_0_151
*122 FILLER_0_155
*123 FILLER_0_157
*124 FILLER_1_4
*125 FILLER_1_8
*126 FILLER_1_10
*127 FILLER_1_57
*128 FILLER_1_65
*129 FILLER_1_73
*130 FILLER_1_81
*131 FILLER_1_89
*132 FILLER_1_97
*133 FILLER_1_144
*134 FILLER_1_152
*135 FILLER_1_156
*136 FILLER_2_4
*137 FILLER_2_8
*138 FILLER_2_10
*139 FILLER_2_57
*140 FILLER_2_65
*141 FILLER_2_73
*142 FILLER_2_81
*143 FILLER_2_84
*144 FILLER_2_92
*145 FILLER_2_96
*146 FILLER_2_144
*147 FILLER_2_152
*148 FILLER_2_156
*149 FILLER_3_4
*150 FILLER_3_8
*151 FILLER_3_10
*152 FILLER_3_57
*153 FILLER_3_65
*154 FILLER_3_73
*155 FILLER_3_81
*156 FILLER_3_89
*157 FILLER_3_97
*158 FILLER_3_144
*159 FILLER_3_152
*160 FILLER_3_156
*161 FILLER_4_4
*162 FILLER_4_8
*163 FILLER_4_10
*164 FILLER_4_57
*165 FILLER_4_65
*166 FILLER_4_73
*167 FILLER_4_81
*168 FILLER_4_84
*169 FILLER_4_92
*170 FILLER_4_96
*171 FILLER_4_144
*172 FILLER_4_152
*173 FILLER_4_156
*174 FILLER_5_4
*175 FILLER_5_8
*176 FILLER_5_10
*177 FILLER_5_57
*178 FILLER_5_65
*179 FILLER_5_73
*180 FILLER_5_81
*181 FILLER_5_89
*182 FILLER_5_97
*183 FILLER_5_144
*184 FILLER_5_152
*185 FILLER_5_156
*186 FILLER_6_4
*187 FILLER_6_8
*188 FILLER_6_10
*189 FILLER_6_57
*190 FILLER_6_65
*191 FILLER_6_73
*192 FILLER_6_81
*193 FILLER_6_84
*194 FILLER_6_92
*195 FILLER_6_96
*196 FILLER_6_144
*197 FILLER_6_152
*198 FILLER_6_156
*199 FILLER_7_4
*200 FILLER_7_8
*201 FILLER_7_10
*202 FILLER_7_57
*203 FILLER_7_65
*204 FILLER_7_73
*205 FILLER_7_81
*206 FILLER_7_89
*207 FILLER_7_97
*208 FILLER_7_144
*209 FILLER_7_152
*210 FILLER_7_156
*211 FILLER_8_4
*212 FILLER_8_8
*213 FILLER_8_10
*214 FILLER_8_57
*215 FILLER_8_65
*216 FILLER_8_73
*217 FILLER_8_81
*218 FILLER_8_84
*219 FILLER_8_92
*220 FILLER_8_96
*221 FILLER_8_144
*222 FILLER_8_152
*223 FILLER_8_156
*224 FILLER_9_4
*225 FILLER_9_12
*226 FILLER_9_20
*227 FILLER_9_28
*228 FILLER_9_31
*229 FILLER_9_39
*230 FILLER_9_47
*231 FILLER_9_55
*232 FILLER_9_59
*233 FILLER_9_61
*234 FILLER_9_69
*235 FILLER_9_77
*236 FILLER_9_85
*237 FILLER_9_89
*238 FILLER_9_91
*239 FILLER_9_99
*240 FILLER_9_107
*241 FILLER_9_115
*242 FILLER_9_119
*243 FILLER_9_121
*244 FILLER_9_129
*245 FILLER_9_137
*246 FILLER_9_145
*247 FILLER_9_149
*248 FILLER_9_151
*249 FILLER_9_155
*250 FILLER_9_157
*251 FILLER_10_4
*252 FILLER_10_12
*253 FILLER_10_20
*254 FILLER_10_28
*255 FILLER_10_31
*256 FILLER_10_39
*257 FILLER_10_47
*258 FILLER_10_55
*259 FILLER_10_63
*260 FILLER_10_71
*261 FILLER_10_79
*262 FILLER_10_87
*263 FILLER_10_89
*264 FILLER_10_91
*265 FILLER_10_99
*266 FILLER_10_107
*267 FILLER_10_115
*268 FILLER_10_123
*269 FILLER_10_131
*270 FILLER_10_139
*271 FILLER_10_147
*272 FILLER_10_149
*273 FILLER_10_151
*274 FILLER_10_155
*275 FILLER_10_157
*276 FILLER_11_4
*277 FILLER_11_12
*278 FILLER_11_20
*279 FILLER_11_28
*280 FILLER_11_36
*281 FILLER_11_44
*282 FILLER_11_52
*283 FILLER_11_61
*284 FILLER_11_69
*285 FILLER_11_77
*286 FILLER_11_85
*287 FILLER_11_93
*288 FILLER_11_101
*289 FILLER_11_109
*290 FILLER_11_117
*291 FILLER_11_119
*292 FILLER_11_121
*293 FILLER_11_129
*294 FILLER_11_137
*295 FILLER_11_145
*296 FILLER_11_153
*297 FILLER_11_157
*298 FILLER_12_4
*299 FILLER_12_12
*300 FILLER_12_20
*301 FILLER_12_28
*302 FILLER_12_31
*303 FILLER_12_39
*304 FILLER_12_47
*305 FILLER_12_55
*306 FILLER_12_63
*307 FILLER_12_71
*308 FILLER_12_79
*309 FILLER_12_87
*310 FILLER_12_89
*311 FILLER_12_91
*312 FILLER_12_99
*313 FILLER_12_107
*314 FILLER_12_115
*315 FILLER_12_123
*316 FILLER_12_131
*317 FILLER_12_139
*318 FILLER_12_147
*319 FILLER_12_149
*320 FILLER_12_151
*321 FILLER_12_155
*322 FILLER_12_157
*323 FILLER_13_4
*324 FILLER_13_12
*325 FILLER_13_20
*326 FILLER_13_28
*327 FILLER_13_31
*328 FILLER_13_39
*329 FILLER_13_47
*330 FILLER_13_55
*331 FILLER_13_59
*332 FILLER_13_61
*333 FILLER_13_69
*334 FILLER_13_77
*335 FILLER_13_85
*336 FILLER_13_89
*337 FILLER_13_91
*338 FILLER_13_99
*339 FILLER_13_107
*340 FILLER_13_115
*341 FILLER_13_119
*342 FILLER_13_121
*343 FILLER_13_129
*344 FILLER_13_137
*345 FILLER_13_145
*346 FILLER_13_149
*347 FILLER_13_151
*348 FILLER_13_155
*349 FILLER_13_157

*PORTS
INN I
OUT O
r_VSS\(0\) I
r_VSS\(1\) I
r_VSS\(2\) I
r_VDD\(0\) I
r_VDD\(1\) I
r_VDD\(2\) I

*D_NET *1 0.0105408
*CONN
*P INN I
*I *8:INN I *D ADC_1BIT
*CAP
1 INN 0.000759761
2 *8:INN 0.000562488
3 *1:11 0.00227391
4 *1:8 0.00394816
5 *1:7 0.00299649
*RES
1 INN *1:7 25.9649 
2 *1:7 *1:8 60.6206 
3 *1:8 *1:11 48.6877 
4 *1:11 *8:INN 19.0041 
*END

*D_NET *2 0.0138239
*CONN
*P OUT O
*I *8:OUT I *D ADC_1BIT
*CAP
1 OUT 0.000730785
2 *8:OUT 0.00155512
3 *2:8 0.00580105
4 *2:7 0.00497671
5 *2:8 r_VSS\(0\) 0.000760268
*RES
1 OUT *2:7 25.1405 
2 *2:7 *2:8 115.526 
3 *2:8 *8:OUT 48.175 
*END

*D_NET *3 0.00839967
*CONN
*I *8:INP I *D ADC_1BIT
*I *9:INP I *D RING_OSCILLATOR
*CAP
1 *8:INP 0.000360397
2 *9:INP 0.000287371
3 *3:8 0.00391247
4 *3:7 0.00383944
*RES
1 *9:INP *3:7 16.6455 
2 *3:7 *3:8 51.7469 
3 *3:8 *8:INP 18.7218 
*END

*D_NET *6 0.00453436
*CONN
*P r_VSS\(1\) I
*P r_VSS\(0\) I
*P r_VSS\(2\) I
*CAP
1 r_VSS\(1\) 0
2 r_VSS\(0\) 0.00161762
3 r_VSS\(2\) 0.000269432
4 *6:5 0.00188705
5 r_VSS\(0\) r_VDD\(0\) 0
6 *2:8 r_VSS\(0\) 0.000760268
*RES
1 r_VSS\(2\) *6:5 0.674814 
2 *6:5 r_VSS\(0\) 6.16327 
3 *6:5 r_VSS\(1\) 0.0058 
*END

*D_NET *7 0.00374463
*CONN
*P r_VDD\(1\) I
*P r_VDD\(0\) I
*P r_VDD\(2\) I
*CAP
1 r_VDD\(1\) 0
2 r_VDD\(0\) 0.00161247
3 r_VDD\(2\) 0.000259849
4 *7:5 0.00187231
5 r_VSS\(0\) r_VDD\(0\) 0
*RES
1 r_VDD\(2\) *7:5 0.674814 
2 *7:5 r_VDD\(0\) 5.55135 
3 *7:5 r_VDD\(1\) 0.0058 
*END
